[General]
network = FogNetwork
sim-time-limit = 100s
